%chk=resp.chk
%mem=100GB
%nprocshared=40
# wb97xd/6-31+g iop(6/33=2) iop(6/42=6) pop=mk iop(6/50=1)

DBP11

0 1
  C   23.1802230   31.1797870   43.9421540
  C   24.3702620   31.0065160   43.3526990
  C   24.4597000   30.1326410   42.2829360
  C   23.3928600   29.3090630   41.9441380
  C   23.6488320   28.1315500   41.2089540
  C   22.8157250   27.7765960   40.1491390
  C   21.7189290   28.6088140   39.7713660
  C   20.9130860   28.2983670   38.7114490
  C   21.1582370   27.1657560   37.9943770
  C   22.2416950   26.3552020   38.3325840
  C   23.1159080   26.6078150   39.3899080
  C   24.2106230   25.7717360   39.7436940
  C   24.7210220   24.7935490   38.8312230
  C   23.9610610   23.7487980   38.3607330
  C   24.6215740   22.7966230   37.5480840
  C   25.9227980   23.0704420   37.1117100
  C   26.5719430   24.1542550   37.4698940
  C   26.0119590   25.0091670   38.4198110
  C   24.9612350   26.1021000   40.8689230
  C   25.9486620   25.3947070   41.5331990
  C   26.6481910   24.1464160   41.3426210
  C   27.6121600   23.7567480   42.2250060
  C   28.0398060   24.5518680   43.3232120
  C   28.9784910   24.2042080   44.2808760
  C   29.7033230   23.0114360   44.1528630
  C   30.7160890   22.6590160   45.1077120
  C   30.9300080   23.4727900   46.2596050
  C   31.7557790   23.5232160   47.3546520
  C   32.6956980   22.5447460   47.8561400
  C   32.7989040   21.3131830   47.2602730
  C   34.0732540   20.9353260   46.6683920
  C   34.1887510   19.8153880   45.8368950
  C   33.0422210   19.0333670   45.6505660
  C   31.8324430   19.3902090   46.2528690
  C   31.7053990   20.4538350   47.0523220
  C   33.5064890   22.8982770   48.9619060
  C   34.3491360   21.9467510   49.5562290
  C   35.0689200   22.3115920   50.6809080
  C   35.0312500   23.6055220   51.1580810
  C   34.2161370   24.5499340   50.6262550
  C   33.4258040   24.2239840   49.5086980
  C   32.4092250   25.1153340   49.0558170
  C   32.2049670   26.4121780   49.6540370
  C   33.0259630   27.5580100   49.4098470
  C   32.5755770   28.8766170   49.6975140
  C   31.4537450   28.9915920   50.5074010
  C   30.7185170   27.8496670   50.8743060
  C   31.0507280   26.5577240   50.3869060
  C   31.5533240   24.7526740   47.9889680
  C   30.6450940   25.4735980   47.2996670
  C   30.1455250   26.8004800   47.3562890
  C   29.1203400   27.2049060   46.4585990
  C   28.6784420   26.3428080   45.4712520
  C   27.6013160   26.6160390   44.6023030
  C   26.8073790   27.7597010   44.8024790
  C   25.7065890   27.9928050   43.9038240
  C   25.5462340   27.2020030   42.7238390
  C   24.7115120   27.2602650   41.5726850
  C   26.2987560   26.0865590   42.6908150
  C   27.2786690   25.7290570   43.5653690
  C   29.2738040   25.0778960   45.3092650
  C   30.2692470   24.6601600   46.2556300
  C   22.2000560   29.5015980   42.5954060
  C   21.9959200   30.5108220   43.5733570
  H   22.9704070   31.8005220   44.8092800
  H   25.2058140   31.5066910   43.8362500
  H   25.3843000   30.1364860   41.7115440
  H   21.2740000   29.4293060   40.3292690
  H   20.0947490   28.9684910   38.4593660
  H   20.6945840   26.8403850   37.0656590
  H   22.3077620   25.4761010   37.6960450
  H   22.9780220   23.4787790   38.7374650
  H   24.1414090   21.8909300   37.1860850
  H   26.3810460   22.3508760   36.4380110
  H   27.5593170   24.4052240   37.0895500
  H   26.6050240   25.8069950   38.8587270
  H   26.3968830   23.4714850   40.5286560
  H   28.0494880   22.7912860   41.9851760
  H   29.4880910   22.3659480   43.3050990
  H   31.3365690   21.8028760   44.8566890
  H   34.9544600   21.5616610   46.7850800
  H   35.1129260   19.7311590   45.2713700
  H   33.0932240   18.2426990   44.9057920
  H   30.9438460   18.7773970   46.1221690
  H   30.7560500   20.7199630   47.5095370
  H   34.3244290   20.9158710   49.2144930
  H   35.7035640   21.5570950   51.1391070
  H   35.6833340   23.8715320   51.9860080
  H   34.0088880   25.4984130   51.1168590
  H   33.8657040   27.4424780   48.7282870
  H   33.0379030   29.7872540   49.3259200
  H   31.0601310   29.9816860   50.7221760
  H   29.8127730   27.9843060   51.4597320
  H   30.3155500   25.7759630   50.5590130
  H   30.4276470   27.4655040   48.1686250
  H   28.7681480   28.2301980   46.5486980
  H   26.9060710   28.3881760   45.6843950
  H   24.8719410   28.6568950   44.1132050
  H   21.3932990   28.7933770   42.4274180
  H   21.1187290   30.6296840   44.2031480

DBP.esp



